!-Generator IDFEditor 1.50
!-Option SortedOrder

!-NOTE: All comments with '!-' are ignored by the IDFEditor and are generated automatically.
!-      Use '!' comments if they need to be retained when using the IDFEditor.


!-   ===========  ALL OBJECTS IN CLASS: VERSION ===========

Version,
    8.7;                     !- Version Identifier


!-   ===========  ALL OBJECTS IN CLASS: SIMULATIONCONTROL ===========

SimulationControl,
    No,                      !- Do Zone Sizing Calculation
    No,                      !- Do System Sizing Calculation
    No,                      !- Do Plant Sizing Calculation
    No,                      !- Run Simulation for Sizing Periods
    Yes;                     !- Run Simulation for Weather File Run Periods


!-   ===========  ALL OBJECTS IN CLASS: BUILDING ===========

Building,
    B2AB9A,                  !- Name
    0.0,                     !- North Axis {deg}
    City,                    !- Terrain
    0.04,                    !- Loads Convergence Tolerance Value
    0.4,                     !- Temperature Convergence Tolerance Value {deltaC}
    FullInteriorAndExterior, !- Solar Distribution
    25,                      !- Maximum Number of Warmup Days
    ;                        !- Minimum Number of Warmup Days


!-   ===========  ALL OBJECTS IN CLASS: TIMESTEP ===========

Timestep,
    4;                       !- Number of Timesteps per Hour


!-   ===========  ALL OBJECTS IN CLASS: SITE:LOCATION ===========

Site:Location,
    Pelotas,                 !- Name
    -31.52,                  !- Latitude {deg}
    -52.21,                  !- Longitude {deg}
    -3.0,                    !- Time Zone {hr}
    17;                      !- Elevation {m}


!-   ===========  ALL OBJECTS IN CLASS: RUNPERIOD ===========

RunPeriod,
    Untitled,                !- Name
    1,                       !- Begin Month
    1,                       !- Begin Day of Month
    12,                      !- End Month
    31,                      !- End Day of Month
    UseWeatherFile,          !- Day of Week for Start Day
    Yes,                     !- Use Weather File Holidays and Special Days
    Yes,                     !- Use Weather File Daylight Saving Period
    No,                      !- Apply Weekend Holiday Rule
    Yes,                     !- Use Weather File Rain Indicators
    Yes,                     !- Use Weather File Snow Indicators
    1;                       !- Number of Times Runperiod to be Repeated


!-   ===========  ALL OBJECTS IN CLASS: RUNPERIODCONTROL:DAYLIGHTSAVINGTIME ===========

! Daylight Saving Period in US
RunPeriodControl:DaylightSavingTime,
    2nd Sunday in March,     !- Start Date
    1st Sunday in November;  !- End Date


!-   ===========  ALL OBJECTS IN CLASS: SITE:GROUNDTEMPERATURE:BUILDINGSURFACE ===========

Site:GroundTemperature:BuildingSurface,
    26,                      !- January Ground Temperature {C}
    25.9,                    !- February Ground Temperature {C}
    23.9,                    !- March Ground Temperature {C}
    22.2,                    !- April Ground Temperature {C}
    19.1,                    !- May Ground Temperature {C}
    16.4,                    !- June Ground Temperature {C}
    16.3,                    !- July Ground Temperature {C}
    16.1,                    !- August Ground Temperature {C}
    17.5,                    !- September Ground Temperature {C}
    19.8,                    !- October Ground Temperature {C}
    22.9,                    !- November Ground Temperature {C}
    24.3;                    !- December Ground Temperature {C}


!-   ===========  ALL OBJECTS IN CLASS: SCHEDULETYPELIMITS ===========

ScheduleTypeLimits,
    Qualquer,                !- Name
    0,                       !- Lower Limit Value
    100000,                  !- Upper Limit Value
    Continuous,              !- Numeric Type
    Dimensionless;           !- Unit Type

ScheduleTypeLimits,
    Any Number;              !- Name

ScheduleTypeLimits,
    Fraction,                !- Name
    0.0,                     !- Lower Limit Value
    1.0,                     !- Upper Limit Value
    CONTINUOUS;              !- Numeric Type

ScheduleTypeLimits,
    Temperature,             !- Name
    -60,                     !- Lower Limit Value
    200,                     !- Upper Limit Value
    CONTINUOUS;              !- Numeric Type

ScheduleTypeLimits,
    On/Off,                  !- Name
    0,                       !- Lower Limit Value
    1,                       !- Upper Limit Value
    DISCRETE;                !- Numeric Type

ScheduleTypeLimits,
    Control Type,            !- Name
    0,                       !- Lower Limit Value
    4,                       !- Upper Limit Value
    DISCRETE;                !- Numeric Type

ScheduleTypeLimits,
    Humidity,                !- Name
    10,                      !- Lower Limit Value
    90,                      !- Upper Limit Value
    CONTINUOUS;              !- Numeric Type

ScheduleTypeLimits,
    Number;                  !- Name


!-   ===========  ALL OBJECTS IN CLASS: SCHEDULE:COMPACT ===========

Schedule:Compact,
    TempVent,                !- Name
    Temperature,             !- Schedule Type Limits Name
    Through: 12/31,          !- Field 1
    For: Weekdays Weekends SummerDesignDays,  !- Field 2
    Until: 24:00,            !- Field 3
    20,                      !- Field 4
    For: WinterDesignDays,   !- Field 5
    Until: 24:00,            !- Field 6
    0,                       !- Field 7
    For: AllOtherDays,       !- Field 8
    Until: 24:00,            !- Field 9
    20;                      !- Field 10

Schedule:Compact,
    2,                       !- Name
    On/Off,                  !- Schedule Type Limits Name
    Through: 12/31,          !- Field 1
    For: AllDays,            !- Field 2
    Until: 24:00,            !- Field 3
    1;                       !- Field 4

Schedule:Compact,
    IluminacaoSala,          !- Name
    On/Off,                  !- Schedule Type Limits Name
    Through: 12/31,          !- Field 1
    For: weekdays,           !- Field 2
    Until: 16:00,            !- Field 3
    0,                       !- Field 4
    Until: 21:00,            !- Field 5
    1,                       !- Field 6
    Until: 24:00,            !- Field 7
    0,                       !- Field 8
    For: allotherdays,       !- Field 9
    Until: 10:00,            !- Field 10
    0,                       !- Field 11
    Until: 12:00,            !- Field 12
    1,                       !- Field 13
    Until: 16:00,            !- Field 14
    0,                       !- Field 15
    Until: 21:00,            !- Field 16
    1,                       !- Field 17
    Until: 24:00,            !- Field 18
    0;                       !- Field 19

Schedule:Compact,
    IluminacaoDorm,          !- Name
    On/Off,                  !- Schedule Type Limits Name
    Through: 12/31,          !- Field 1
    For: weekdays,           !- Field 2
    Until: 06:00,            !- Field 3
    0,                       !- Field 4
    Until: 07:00,            !- Field 5
    1,                       !- Field 6
    Until: 20:00,            !- Field 7
    0,                       !- Field 8
    Until: 22:00,            !- Field 9
    1,                       !- Field 10
    Until: 24:00,            !- Field 11
    0,                       !- Field 12
    For: allotherdays,       !- Field 13
    Until: 08:00,            !- Field 14
    0,                       !- Field 15
    Until: 09:00,            !- Field 16
    1,                       !- Field 17
    Until: 20:00,            !- Field 18
    0,                       !- Field 19
    Until: 22:00,            !- Field 20
    1,                       !- Field 21
    Until: 24:00,            !- Field 22
    0;                       !- Field 23

Schedule:Compact,
    OcupacaoSala,            !- Name
    Fraction,                !- Schedule Type Limits Name
    Through: 12/31,          !- Field 1
    For: weekdays,           !- Field 2
    Until: 13:00,            !- Field 3
    0,                       !- Field 4
    Until: 18:00,            !- Field 5
    .25,                     !- Field 6
    Until: 19:00,            !- Field 7
    1,                       !- Field 8
    Until: 21:00,            !- Field 9
    .5,                      !- Field 10
    Until: 24:00,            !- Field 11
    0,                       !- Field 12
    For: allotherdays,       !- Field 13
    Until: 10:00,            !- Field 14
    0,                       !- Field 15
    Until: 11:00,            !- Field 16
    .25,                     !- Field 17
    Until: 12:00,            !- Field 18
    .75,                     !- Field 19
    Until: 13:00,            !- Field 20
    0,                       !- Field 21
    Until: 14:00,            !- Field 22
    .75,                     !- Field 23
    Until: 17:00,            !- Field 24
    .5,                      !- Field 25
    Until: 19:00,            !- Field 26
    .25,                     !- Field 27
    Until: 21:00,            !- Field 28
    .5,                      !- Field 29
    Until: 24:00,            !- Field 30
    0;                       !- Field 31

Schedule:Compact,
    OcupacaoDorm,            !- Name
    Fraction,                !- Schedule Type Limits Name
    Through: 12/31,          !- Field 1
    For: weekdays,           !- Field 2
    Until: 07:00,            !- Field 3
    1,                       !- Field 4
    Until: 20:00,            !- Field 5
    0,                       !- Field 6
    Until: 21:00,            !- Field 7
    .5,                      !- Field 8
    Until: 24:00,            !- Field 9
    1,                       !- Field 10
    For: allotherdays,       !- Field 11
    Until: 09:00,            !- Field 12
    1,                       !- Field 13
    Until: 10:00,            !- Field 14
    .5,                      !- Field 15
    Until: 20:00,            !- Field 16
    0,                       !- Field 17
    Until: 21:00,            !- Field 18
    .5,                      !- Field 19
    Until: 24:00,            !- Field 20
    1;                       !- Field 21

Schedule:Compact,
    On,                      !- Name
    On/Off,                  !- Schedule Type Limits Name
    Through: 12/31,          !- Field 1
    For: AllDays,            !- Field 2
    Until: 24:00,            !- Field 3
    1;                       !- Field 4

Schedule:Compact,
    AtividadeSala,           !- Name
    Any Number,              !- Schedule Type Limits Name
    Through: 12/31,          !- Field 1
    For: AllDays,            !- Field 2
    Until: 24:00,            !- Field 3
    108;                     !- Field 4

Schedule:Compact,
    AtividadeDorm,           !- Name
    Any Number,              !- Schedule Type Limits Name
    Through: 12/31,          !- Field 1
    For: AllDays,            !- Field 2
    Until: 24:00,            !- Field 3
    81;                      !- Field 4


!-   ===========  ALL OBJECTS IN CLASS: MATERIAL ===========

Material,
    Emboco branco_0025,      !- Name
    Smooth,                  !- Roughness
    0.025,                   !- Thickness {m}
    1.15,                    !- Conductivity {W/m-K}
    1900,                    !- Density {kg/m3}
    1000,                    !- Specific Heat {J/kg-K}
    0.9,                     !- Thermal Absorptance
    0.2,                     !- Solar Absorptance
    0.2;                     !- Visible Absorptance

Material,
    Tijolo furado_009,       !- Name
    Rough,                   !- Roughness
    0.09,                    !- Thickness {m}
    1,                       !- Conductivity {W/m-K}
    1800,                    !- Density {kg/m3}
    920,                     !- Specific Heat {J/kg-K}
    0.9,                     !- Thermal Absorptance
    0.7,                     !- Solar Absorptance
    0.7;                     !- Visible Absorptance

Material,
    Rock wool - unbonded_005,!- Name
    Rough,                   !- Roughness
    0.05,                    !- Thickness {m}
    0.047,                   !- Conductivity {W/m-K}
    92,                      !- Density {kg/m3}
    840,                     !- Specific Heat {J/kg-K}
    0.9,                     !- Thermal Absorptance
    0.6,                     !- Solar Absorptance
    0.6;                     !- Visible Absorptance

Material,
    Tijolo maci?o_01,        !- Name
    Rough,                   !- Roughness
    0.1,                     !- Thickness {m}
    0.9,                     !- Conductivity {W/m-K}
    1500,                    !- Density {kg/m3}
    920,                     !- Specific Heat {J/kg-K}
    0.9,                     !- Thermal Absorptance
    0.7,                     !- Solar Absorptance
    0.7;                     !- Visible Absorptance

Material,
    Concreto laje_01,        !- Name
    Rough,                   !- Roughness
    0.1,                     !- Thickness {m}
    1.75,                    !- Conductivity {W/m-K}
    2300,                    !- Density {kg/m3}
    1000,                    !- Specific Heat {J/kg-K}
    0.9,                     !- Thermal Absorptance
    0.7,                     !- Solar Absorptance
    0.7;                     !- Visible Absorptance

Material,
    Ceramic/clay tiles - ceramic floor tiles Dry_002,  !- Name
    Rough,                   !- Roughness
    0.02,                    !- Thickness {m}
    0.8,                     !- Conductivity {W/m-K}
    1700,                    !- Density {kg/m3}
    850,                     !- Specific Heat {J/kg-K}
    0.9,                     !- Thermal Absorptance
    0.6,                     !- Solar Absorptance
    0.6;                     !- Visible Absorptance

Material,
    Ceramic/clay tiles - clay tiles_005,  !- Name
    Rough,                   !- Roughness
    0.05,                    !- Thickness {m}
    0.85,                    !- Conductivity {W/m-K}
    1900,                    !- Density {kg/m3}
    840,                     !- Specific Heat {J/kg-K}
    0.9,                     !- Thermal Absorptance
    0.6,                     !- Solar Absorptance
    0.6;                     !- Visible Absorptance

Material,
    Pine (20% Moist)_001,    !- Name
    Rough,                   !- Roughness
    0.01,                    !- Thickness {m}
    0.14,                    !- Conductivity {W/m-K}
    419,                     !- Density {kg/m3}
    2720,                    !- Specific Heat {J/kg-K}
    0.9,                     !- Thermal Absorptance
    0.78,                    !- Solar Absorptance
    0.78;                    !- Visible Absorptance


!-   ===========  ALL OBJECTS IN CLASS: MATERIAL:AIRGAP ===========

Material:AirGap,
    AticoInv,                !- Name
    0.14;                    !- Thermal Resistance {m2-K/W}


!-   ===========  ALL OBJECTS IN CLASS: WINDOWMATERIAL:GLAZING ===========

WindowMaterial:Glazing,
    Vidro,                   !- Name
    SpectralAverage,         !- Optical Data Type
    ,                        !- Window Glass Spectral Data Set Name
    0.003,                   !- Thickness {m}
    0.837,                   !- Solar Transmittance at Normal Incidence
    0.075,                   !- Front Side Solar Reflectance at Normal Incidence
    0.075,                   !- Back Side Solar Reflectance at Normal Incidence
    0.898,                   !- Visible Transmittance at Normal Incidence
    0.081,                   !- Front Side Visible Reflectance at Normal Incidence
    0.081,                   !- Back Side Visible Reflectance at Normal Incidence
    0.0,                     !- Infrared Transmittance at Normal Incidence
    0.84,                    !- Front Side Infrared Hemispherical Emissivity
    0.84,                    !- Back Side Infrared Hemispherical Emissivity
    0.9,                     !- Conductivity {W/m-K}
    1;                       !- Dirt Correction Factor for Solar and Visible Transmittance


!-   ===========  ALL OBJECTS IN CLASS: WINDOWMATERIAL:GAS ===========

WindowMaterial:Gas,
    ArVidro,                 !- Name
    Air,                     !- Gas Type
    0.006;                   !- Thickness {m}


!-   ===========  ALL OBJECTS IN CLASS: CONSTRUCTION ===========

Construction,
    Exterior Floor,          !- Name
    Ceramic/clay tiles - ceramic floor tiles Dry_002;  !- Outside Layer

Construction,
    Interior Floor,          !- Name
    Ceramic/clay tiles - ceramic floor tiles Dry_002;  !- Outside Layer

Construction,
    Exterior Wall,           !- Name
    Emboco branco_0025,      !- Outside Layer
    Tijolo furado_009,       !- Layer 2
    Rock wool - unbonded_005,!- Layer 3
    Tijolo maci?o_01,        !- Layer 4
    Emboco branco_0025;      !- Layer 5

Construction,
    Interior Wall,           !- Name
    Emboco branco_0025,      !- Outside Layer
    Tijolo maci?o_01,        !- Layer 2
    Emboco branco_0025;      !- Layer 3

Construction,
    Exterior Roof,           !- Name
    Ceramic/clay tiles - clay tiles_005,  !- Outside Layer
    AticoInv,                !- Layer 2
    Rock wool - unbonded_005,!- Layer 3
    Concreto laje_01;        !- Layer 4

Construction,
    Exterior Window,         !- Name
    Vidro,                   !- Outside Layer
    ArVidro,                 !- Layer 2
    Vidro;                   !- Layer 3

Construction,
    Interior Window,         !- Name
    Vidro;                   !- Outside Layer

Construction,
    Exterior Door,           !- Name
    Pine (20% Moist)_001;    !- Outside Layer

Construction,
    Interior Door,           !- Name
    Pine (20% Moist)_001;    !- Outside Layer


!-   ===========  ALL OBJECTS IN CLASS: GLOBALGEOMETRYRULES ===========

GlobalGeometryRules,
    UpperLeftCorner,         !- Starting Vertex Position
    Counterclockwise,        !- Vertex Entry Direction
    Relative;                !- Coordinate System


!-   ===========  ALL OBJECTS IN CLASS: ZONE ===========

Zone,
    DormCasal,               !- Name
    0.0,                     !- Direction of Relative North {deg}
    0.0,                     !- X Origin {m}
    0.0,                     !- Y Origin {m}
    0.0,                     !- Z Origin {m}
    ,                        !- Type
    1;                       !- Multiplier

Zone,
    DormSolteiro,            !- Name
    0.0,                     !- Direction of Relative North {deg}
    0.0,                     !- X Origin {m}
    0.0,                     !- Y Origin {m}
    0.0,                     !- Z Origin {m}
    ,                        !- Type
    1;                       !- Multiplier

Zone,
    Banheiro,                !- Name
    0.0,                     !- Direction of Relative North {deg}
    0.0,                     !- X Origin {m}
    0.0,                     !- Y Origin {m}
    0.0,                     !- Z Origin {m}
    ,                        !- Type
    1;                       !- Multiplier

Zone,
    Circulacao,              !- Name
    0.0,                     !- Direction of Relative North {deg}
    0.0,                     !- X Origin {m}
    0.0,                     !- Y Origin {m}
    0.0,                     !- Z Origin {m}
    ,                        !- Type
    1;                       !- Multiplier

Zone,
    Sala,                    !- Name
    0.0,                     !- Direction of Relative North {deg}
    0.0,                     !- X Origin {m}
    0.0,                     !- Y Origin {m}
    0.0,                     !- Z Origin {m}
    ,                        !- Type
    1;                       !- Multiplier

Zone,
    JardimInverno,           !- Name
    0.0,                     !- Direction of Relative North {deg}
    0.0,                     !- X Origin {m}
    0.0,                     !- Y Origin {m}
    0.0,                     !- Z Origin {m}
    ,                        !- Type
    1;                       !- Multiplier

Zone,
    Servico,                 !- Name
    0.0,                     !- Direction of Relative North {deg}
    0.0,                     !- X Origin {m}
    0.0,                     !- Y Origin {m}
    0.0,                     !- Z Origin {m}
    ,                        !- Type
    1;                       !- Multiplier

Zone,
    Cozinha,                 !- Name
    0.0,                     !- Direction of Relative North {deg}
    0.0,                     !- X Origin {m}
    0.0,                     !- Y Origin {m}
    0.0,                     !- Z Origin {m}
    ,                        !- Type
    1;                       !- Multiplier


!-   ===========  ALL OBJECTS IN CLASS: BUILDINGSURFACE:DETAILED ===========

BuildingSurface:Detailed,
    1F39A8,                  !- Name
    Floor,                   !- Surface Type
    Exterior Floor,          !- Construction Name
    DormCasal,               !- Zone Name
    Ground,                  !- Outside Boundary Condition
    ,                        !- Outside Boundary Condition Object
    NoSun,                   !- Sun Exposure
    NoWind,                  !- Wind Exposure
    ,                        !- View Factor to Ground
    4,                       !- Number of Vertices
    0.000000000000,          !- Vertex 1 X-coordinate {m}
    0.000000000000,          !- Vertex 1 Y-coordinate {m}
    0.000000000000,          !- Vertex 1 Z-coordinate {m}
    0.000000000000,          !- Vertex 2 X-coordinate {m}
    -5.700000000000,         !- Vertex 2 Y-coordinate {m}
    0.000000000000,          !- Vertex 2 Z-coordinate {m}
    -3.200000000000,         !- Vertex 3 X-coordinate {m}
    -5.700000000000,         !- Vertex 3 Y-coordinate {m}
    0.000000000000,          !- Vertex 3 Z-coordinate {m}
    -3.200000000000,         !- Vertex 4 X-coordinate {m}
    0.000000000000,          !- Vertex 4 Y-coordinate {m}
    0.000000000000;          !- Vertex 4 Z-coordinate {m}

BuildingSurface:Detailed,
    3622FF,                  !- Name
    Roof,                    !- Surface Type
    Exterior Roof,           !- Construction Name
    DormCasal,               !- Zone Name
    Outdoors,                !- Outside Boundary Condition
    ,                        !- Outside Boundary Condition Object
    SunExposed,              !- Sun Exposure
    WindExposed,             !- Wind Exposure
    ,                        !- View Factor to Ground
    4,                       !- Number of Vertices
    -3.200000000000,         !- Vertex 1 X-coordinate {m}
    0.000000000000,          !- Vertex 1 Y-coordinate {m}
    2.700000000000,          !- Vertex 1 Z-coordinate {m}
    -3.200000000000,         !- Vertex 2 X-coordinate {m}
    -5.700000000000,         !- Vertex 2 Y-coordinate {m}
    2.700000000000,          !- Vertex 2 Z-coordinate {m}
    0.000000000000,          !- Vertex 3 X-coordinate {m}
    -5.700000000000,         !- Vertex 3 Y-coordinate {m}
    2.700000000000,          !- Vertex 3 Z-coordinate {m}
    0.000000000000,          !- Vertex 4 X-coordinate {m}
    0.000000000000,          !- Vertex 4 Y-coordinate {m}
    2.700000000000;          !- Vertex 4 Z-coordinate {m}

BuildingSurface:Detailed,
    84D231,                  !- Name
    Wall,                    !- Surface Type
    Interior Wall,           !- Construction Name
    DormCasal,               !- Zone Name
    Surface,                 !- Outside Boundary Condition
    46F087,                  !- Outside Boundary Condition Object
    NoSun,                   !- Sun Exposure
    NoWind,                  !- Wind Exposure
    ,                        !- View Factor to Ground
    4,                       !- Number of Vertices
    -3.200000000000,         !- Vertex 1 X-coordinate {m}
    -5.700000000000,         !- Vertex 1 Y-coordinate {m}
    2.700000000000,          !- Vertex 1 Z-coordinate {m}
    -3.200000000000,         !- Vertex 2 X-coordinate {m}
    -5.700000000000,         !- Vertex 2 Y-coordinate {m}
    0.000000000000,          !- Vertex 2 Z-coordinate {m}
    0.000000000000,          !- Vertex 3 X-coordinate {m}
    -5.700000000000,         !- Vertex 3 Y-coordinate {m}
    0.000000000000,          !- Vertex 3 Z-coordinate {m}
    0.000000000000,          !- Vertex 4 X-coordinate {m}
    -5.700000000000,         !- Vertex 4 Y-coordinate {m}
    2.700000000000;          !- Vertex 4 Z-coordinate {m}

BuildingSurface:Detailed,
    9D367F,                  !- Name
    Wall,                    !- Surface Type
    Exterior Wall,           !- Construction Name
    DormCasal,               !- Zone Name
    Outdoors,                !- Outside Boundary Condition
    ,                        !- Outside Boundary Condition Object
    SunExposed,              !- Sun Exposure
    WindExposed,             !- Wind Exposure
    ,                        !- View Factor to Ground
    4,                       !- Number of Vertices
    0.000000000000,          !- Vertex 1 X-coordinate {m}
    -5.700000000000,         !- Vertex 1 Y-coordinate {m}
    2.700000000000,          !- Vertex 1 Z-coordinate {m}
    0.000000000000,          !- Vertex 2 X-coordinate {m}
    -5.700000000000,         !- Vertex 2 Y-coordinate {m}
    0.000000000000,          !- Vertex 2 Z-coordinate {m}
    0.000000000000,          !- Vertex 3 X-coordinate {m}
    0.000000000000,          !- Vertex 3 Y-coordinate {m}
    0.000000000000,          !- Vertex 3 Z-coordinate {m}
    0.000000000000,          !- Vertex 4 X-coordinate {m}
    0.000000000000,          !- Vertex 4 Y-coordinate {m}
    2.700000000000;          !- Vertex 4 Z-coordinate {m}

BuildingSurface:Detailed,
    363478,                  !- Name
    Wall,                    !- Surface Type
    Exterior Wall,           !- Construction Name
    DormCasal,               !- Zone Name
    Outdoors,                !- Outside Boundary Condition
    ,                        !- Outside Boundary Condition Object
    SunExposed,              !- Sun Exposure
    WindExposed,             !- Wind Exposure
    ,                        !- View Factor to Ground
    4,                       !- Number of Vertices
    0.000000000000,          !- Vertex 1 X-coordinate {m}
    0.000000000000,          !- Vertex 1 Y-coordinate {m}
    2.700000000000,          !- Vertex 1 Z-coordinate {m}
    0.000000000000,          !- Vertex 2 X-coordinate {m}
    0.000000000000,          !- Vertex 2 Y-coordinate {m}
    0.000000000000,          !- Vertex 2 Z-coordinate {m}
    -3.200000000000,         !- Vertex 3 X-coordinate {m}
    0.000000000000,          !- Vertex 3 Y-coordinate {m}
    0.000000000000,          !- Vertex 3 Z-coordinate {m}
    -3.200000000000,         !- Vertex 4 X-coordinate {m}
    0.000000000000,          !- Vertex 4 Y-coordinate {m}
    2.700000000000;          !- Vertex 4 Z-coordinate {m}

BuildingSurface:Detailed,
    DB1F1D,                  !- Name
    Wall,                    !- Surface Type
    Interior Wall,           !- Construction Name
    DormCasal,               !- Zone Name
    Surface,                 !- Outside Boundary Condition
    A83E92,                  !- Outside Boundary Condition Object
    NoSun,                   !- Sun Exposure
    NoWind,                  !- Wind Exposure
    ,                        !- View Factor to Ground
    4,                       !- Number of Vertices
    -3.200000000000,         !- Vertex 1 X-coordinate {m}
    -4.600000000000,         !- Vertex 1 Y-coordinate {m}
    2.700000000000,          !- Vertex 1 Z-coordinate {m}
    -3.200000000000,         !- Vertex 2 X-coordinate {m}
    -4.600000000000,         !- Vertex 2 Y-coordinate {m}
    0.000000000000,          !- Vertex 2 Z-coordinate {m}
    -3.200000000000,         !- Vertex 3 X-coordinate {m}
    -5.700000000000,         !- Vertex 3 Y-coordinate {m}
    0.000000000000,          !- Vertex 3 Z-coordinate {m}
    -3.200000000000,         !- Vertex 4 X-coordinate {m}
    -5.700000000000,         !- Vertex 4 Y-coordinate {m}
    2.700000000000;          !- Vertex 4 Z-coordinate {m}

BuildingSurface:Detailed,
    6CAE95,                  !- Name
    Floor,                   !- Surface Type
    Exterior Floor,          !- Construction Name
    DormSolteiro,            !- Zone Name
    Ground,                  !- Outside Boundary Condition
    ,                        !- Outside Boundary Condition Object
    NoSun,                   !- Sun Exposure
    NoWind,                  !- Wind Exposure
    ,                        !- View Factor to Ground
    4,                       !- Number of Vertices
    -3.200000000000,         !- Vertex 1 X-coordinate {m}
    0.000000000000,          !- Vertex 1 Y-coordinate {m}
    0.000000000000,          !- Vertex 1 Z-coordinate {m}
    -3.200000000000,         !- Vertex 2 X-coordinate {m}
    -4.600000000000,         !- Vertex 2 Y-coordinate {m}
    0.000000000000,          !- Vertex 2 Z-coordinate {m}
    -6.400000000000,         !- Vertex 3 X-coordinate {m}
    -4.600000000000,         !- Vertex 3 Y-coordinate {m}
    0.000000000000,          !- Vertex 3 Z-coordinate {m}
    -6.400000000000,         !- Vertex 4 X-coordinate {m}
    0.000000000000,          !- Vertex 4 Y-coordinate {m}
    0.000000000000;          !- Vertex 4 Z-coordinate {m}

BuildingSurface:Detailed,
    6D6944,                  !- Name
    Wall,                    !- Surface Type
    Exterior Wall,           !- Construction Name
    DormSolteiro,            !- Zone Name
    Outdoors,                !- Outside Boundary Condition
    ,                        !- Outside Boundary Condition Object
    SunExposed,              !- Sun Exposure
    WindExposed,             !- Wind Exposure
    ,                        !- View Factor to Ground
    4,                       !- Number of Vertices
    -3.200000000000,         !- Vertex 1 X-coordinate {m}
    0.000000000000,          !- Vertex 1 Y-coordinate {m}
    2.700000000000,          !- Vertex 1 Z-coordinate {m}
    -3.200000000000,         !- Vertex 2 X-coordinate {m}